<?xml version="1.0" encoding="utf-8"?>
<configuration xmlns:xsi="http://www.w3.org/2001/XMLSchema-instance&quot; xsi:noNamespaceSchemaLocation=&quot;http://sumo.dlr.de/xsd/sumoConfiguration.xsd">
	<input>
		<net-file value="net.xml"/>
	</input>
	<time>
		<step-length value="0.1"/>
	</time>
	<processing>
		<step-method.ballistic value="true"/>
	</processing>
	<Gui-only>
		<start value="t"/>
		<quit-on-end value="t"/>
	</Gui-only>
</configuration>
